#======================================================================

# CRYSTAL DATA

#----------------------------------------------------------------------

data_VESTA_phase_1


_pd_phase_name                         'ž'
_cell_length_a                         16.94302
_cell_length_b                         16.94302
_cell_length_c                         16.94302
_cell_angle_alpha                      90
_cell_angle_beta                       90
_cell_angle_gamma                      90
_symmetry_space_group_name_H-M         'P 1'
_symmetry_Int_Tables_number            1

loop_
_symmetry_equiv_pos_as_xyz
   'x, y, z'

loop_
   _atom_site_label
   _atom_site_occupancy
   _atom_site_fract_x
   _atom_site_fract_y
   _atom_site_fract_z
   _atom_site_adp_type
   _atom_site_B_iso_or_equiv
   _atom_site_type_symbol
   C1         1.0     0.377077      0.006551      0.622923     Biso  1.000000 C
   C2         1.0     0.877077      0.506551      0.122923     Biso  1.000000 C
   C3         1.0     0.377077      0.993449      0.377077     Biso  1.000000 C
   C4         1.0     0.877077      0.493449      0.877077     Biso  1.000000 C
   C5         1.0     0.377077      0.622923      0.006551     Biso  1.000000 C
   C6         1.0     0.877077      0.122923      0.506551     Biso  1.000000 C
   C7         1.0     0.377077      0.377077      0.993449     Biso  1.000000 C
   C8         1.0     0.877077      0.877077      0.493449     Biso  1.000000 C
   C9         1.0     0.622923      0.006551      0.377077     Biso  1.000000 C
   C10        1.0     0.122923      0.506551      0.877077     Biso  1.000000 C
   C11        1.0     0.622923      0.993449      0.622923     Biso  1.000000 C
   C12        1.0     0.122923      0.493449      0.122923     Biso  1.000000 C
   C13        1.0     0.622923      0.622923      0.993449     Biso  1.000000 C
   C14        1.0     0.122923      0.122923      0.493449     Biso  1.000000 C
   C15        1.0     0.622923      0.377077      0.006551     Biso  1.000000 C
   C16        1.0     0.122923      0.877077      0.506551     Biso  1.000000 C
   C17        1.0     0.006551      0.377077      0.622923     Biso  1.000000 C
   C18        1.0     0.506551      0.877077      0.122923     Biso  1.000000 C
   C19        1.0     0.006551      0.622923      0.377077     Biso  1.000000 C
   C20        1.0     0.506551      0.122923      0.877077     Biso  1.000000 C
   C21        1.0     0.993449      0.377077      0.377077     Biso  1.000000 C
   C22        1.0     0.493449      0.877077      0.877077     Biso  1.000000 C
   C23        1.0     0.993449      0.622923      0.622923     Biso  1.000000 C
   C24        1.0     0.493449      0.122923      0.122923     Biso  1.000000 C
   C25        1.0     0.370034      0.895153      0.687366     Biso  1.000000 C
   C26        1.0     0.870034      0.395153      0.187366     Biso  1.000000 C
   C27        1.0     0.370034      0.104847      0.312634     Biso  1.000000 C
   C28        1.0     0.870034      0.604847      0.812634     Biso  1.000000 C
   C29        1.0     0.370034      0.687366      0.895153     Biso  1.000000 C
   C30        1.0     0.870034      0.187366      0.395153     Biso  1.000000 C
   C31        1.0     0.370034      0.312634      0.104847     Biso  1.000000 C
   C32        1.0     0.870034      0.812634      0.604847     Biso  1.000000 C
   C33        1.0     0.629966      0.895153      0.312634     Biso  1.000000 C
   C34        1.0     0.129966      0.395153      0.812634     Biso  1.000000 C
   C35        1.0     0.629966      0.104847      0.687366     Biso  1.000000 C
   C36        1.0     0.129966      0.604847      0.187366     Biso  1.000000 C
   C37        1.0     0.629966      0.687366      0.104847     Biso  1.000000 C
   C38        1.0     0.129966      0.187366      0.604847     Biso  1.000000 C
   C39        1.0     0.629966      0.312634      0.895153     Biso  1.000000 C
   C40        1.0     0.129966      0.812634      0.395153     Biso  1.000000 C
   C41        1.0     0.895153      0.370034      0.687366     Biso  1.000000 C
   C42        1.0     0.395153      0.870034      0.187366     Biso  1.000000 C
   C43        1.0     0.895153      0.629966      0.312634     Biso  1.000000 C
   C44        1.0     0.395153      0.129966      0.812634     Biso  1.000000 C
   C45        1.0     0.895153      0.687366      0.370034     Biso  1.000000 C
   C46        1.0     0.395153      0.187366      0.870034     Biso  1.000000 C
   C47        1.0     0.895153      0.312634      0.629966     Biso  1.000000 C
   C48        1.0     0.395153      0.812634      0.129966     Biso  1.000000 C
   C49        1.0     0.104847      0.370034      0.312634     Biso  1.000000 C
   C50        1.0     0.604847      0.870034      0.812634     Biso  1.000000 C
   C51        1.0     0.104847      0.629966      0.687366     Biso  1.000000 C
   C52        1.0     0.604847      0.129966      0.187366     Biso  1.000000 C
   C53        1.0     0.104847      0.687366      0.629966     Biso  1.000000 C
   C54        1.0     0.604847      0.187366      0.129966     Biso  1.000000 C
   C55        1.0     0.104847      0.312634      0.370034     Biso  1.000000 C
   C56        1.0     0.604847      0.812634      0.870034     Biso  1.000000 C
   C57        1.0     0.687366      0.370034      0.895153     Biso  1.000000 C
   C58        1.0     0.187366      0.870034      0.395153     Biso  1.000000 C
   C59        1.0     0.687366      0.629966      0.104847     Biso  1.000000 C
   C60        1.0     0.187366      0.129966      0.604847     Biso  1.000000 C
   C61        1.0     0.687366      0.895153      0.370034     Biso  1.000000 C
   C62        1.0     0.187366      0.395153      0.870034     Biso  1.000000 C
   C63        1.0     0.687366      0.104847      0.629966     Biso  1.000000 C
   C64        1.0     0.187366      0.604847      0.129966     Biso  1.000000 C
   C65        1.0     0.312634      0.370034      0.104847     Biso  1.000000 C
   C66        1.0     0.812634      0.870034      0.604847     Biso  1.000000 C
   C67        1.0     0.312634      0.629966      0.895153     Biso  1.000000 C
   C68        1.0     0.812634      0.129966      0.395153     Biso  1.000000 C
   C69        1.0     0.312634      0.895153      0.629966     Biso  1.000000 C
   C70        1.0     0.812634      0.395153      0.129966     Biso  1.000000 C
   C71        1.0     0.312634      0.104847      0.370034     Biso  1.000000 C
   C72        1.0     0.812634      0.604847      0.870034     Biso  1.000000 C
   C73        1.0     0.405372      0.084926      0.594628     Biso  1.000000 C
   C74        1.0     0.905372      0.584926      0.094628     Biso  1.000000 C
   C75        1.0     0.405372      0.915074      0.405372     Biso  1.000000 C
   C76        1.0     0.905372      0.415074      0.905372     Biso  1.000000 C
   C77        1.0     0.405372      0.594628      0.084926     Biso  1.000000 C
   C78        1.0     0.905372      0.094628      0.584926     Biso  1.000000 C
   C79        1.0     0.405372      0.405372      0.915074     Biso  1.000000 C
   C80        1.0     0.905372      0.905372      0.415074     Biso  1.000000 C
   C81        1.0     0.594628      0.084926      0.405372     Biso  1.000000 C
   C82        1.0     0.094628      0.584926      0.905372     Biso  1.000000 C
   C83        1.0     0.594628      0.915074      0.594628     Biso  1.000000 C
   C84        1.0     0.094628      0.415074      0.094628     Biso  1.000000 C
   C85        1.0     0.594628      0.594628      0.915074     Biso  1.000000 C
   C86        1.0     0.094628      0.094628      0.415074     Biso  1.000000 C
   C87        1.0     0.594628      0.405372      0.084926     Biso  1.000000 C
   C88        1.0     0.094628      0.905372      0.584926     Biso  1.000000 C
   C89        1.0     0.084926      0.405372      0.594628     Biso  1.000000 C
   C90        1.0     0.584926      0.905372      0.094628     Biso  1.000000 C
   C91        1.0     0.084926      0.594628      0.405372     Biso  1.000000 C
   C92        1.0     0.584926      0.094628      0.905372     Biso  1.000000 C
   C93        1.0     0.915074      0.405372      0.405372     Biso  1.000000 C
   C94        1.0     0.415074      0.905372      0.905372     Biso  1.000000 C
   C95        1.0     0.915074      0.594628      0.594628     Biso  1.000000 C
   C96        1.0     0.415074      0.094628      0.094628     Biso  1.000000 C
   Zn1        1.0     0.500000      0.000000      0.750000     Biso  1.000000 Zn
   Zn2        1.0     0.000000      0.500000      0.250000     Biso  1.000000 Zn
   Zn3        1.0     0.500000      0.000000      0.250000     Biso  1.000000 Zn
   Zn4        1.0     0.000000      0.500000      0.750000     Biso  1.000000 Zn
   Zn5        1.0     0.500000      0.750000      0.000000     Biso  1.000000 Zn
   Zn6        1.0     0.000000      0.250000      0.500000     Biso  1.000000 Zn
   Zn7        1.0     0.500000      0.250000      0.000000     Biso  1.000000 Zn
   Zn8        1.0     0.000000      0.750000      0.500000     Biso  1.000000 Zn
   Zn9        1.0     0.750000      0.500000      0.000000     Biso  1.000000 Zn
   Zn10       1.0     0.250000      0.000000      0.500000     Biso  1.000000 Zn
   Zn11       1.0     0.750000      0.000000      0.500000     Biso  1.000000 Zn
   Zn12       1.0     0.250000      0.500000      0.000000     Biso  1.000000 Zn
   H1         1.0     0.385573      0.850866      0.730897     Biso  1.000000 H
   H2         1.0     0.885573      0.350866      0.230897     Biso  1.000000 H
   H3         1.0     0.385573      0.149134      0.269103     Biso  1.000000 H
   H4         1.0     0.885573      0.649134      0.769103     Biso  1.000000 H
   H5         1.0     0.385573      0.730897      0.850866     Biso  1.000000 H
   H6         1.0     0.885573      0.230897      0.350866     Biso  1.000000 H
   H7         1.0     0.385573      0.269103      0.149134     Biso  1.000000 H
   H8         1.0     0.885573      0.769103      0.649134     Biso  1.000000 H
   H9         1.0     0.614427      0.850866      0.269103     Biso  1.000000 H
   H10        1.0     0.114427      0.350866      0.769103     Biso  1.000000 H
   H11        1.0     0.614427      0.149134      0.730897     Biso  1.000000 H
   H12        1.0     0.114427      0.649134      0.230897     Biso  1.000000 H
   H13        1.0     0.614427      0.730897      0.149134     Biso  1.000000 H
   H14        1.0     0.114427      0.230897      0.649134     Biso  1.000000 H
   H15        1.0     0.614427      0.269103      0.850866     Biso  1.000000 H
   H16        1.0     0.114427      0.769103      0.350866     Biso  1.000000 H
   H17        1.0     0.850866      0.385573      0.730897     Biso  1.000000 H
   H18        1.0     0.350866      0.885573      0.230897     Biso  1.000000 H
   H19        1.0     0.850866      0.614427      0.269103     Biso  1.000000 H
   H20        1.0     0.350866      0.114427      0.769103     Biso  1.000000 H
   H21        1.0     0.850866      0.730897      0.385573     Biso  1.000000 H
   H22        1.0     0.350866      0.230897      0.885573     Biso  1.000000 H
   H23        1.0     0.850866      0.269103      0.614427     Biso  1.000000 H
   H24        1.0     0.350866      0.769103      0.114427     Biso  1.000000 H
   H25        1.0     0.149134      0.385573      0.269103     Biso  1.000000 H
   H26        1.0     0.649134      0.885573      0.769103     Biso  1.000000 H
   H27        1.0     0.149134      0.614427      0.730897     Biso  1.000000 H
   H28        1.0     0.649134      0.114427      0.230897     Biso  1.000000 H
   H29        1.0     0.149134      0.730897      0.614427     Biso  1.000000 H
   H30        1.0     0.649134      0.230897      0.114427     Biso  1.000000 H
   H31        1.0     0.149134      0.269103      0.385573     Biso  1.000000 H
   H32        1.0     0.649134      0.769103      0.885573     Biso  1.000000 H
   H33        1.0     0.730897      0.385573      0.850866     Biso  1.000000 H
   H34        1.0     0.230897      0.885573      0.350866     Biso  1.000000 H
   H35        1.0     0.730897      0.614427      0.149134     Biso  1.000000 H
   H36        1.0     0.230897      0.114427      0.649134     Biso  1.000000 H
   H37        1.0     0.730897      0.850866      0.385573     Biso  1.000000 H
   H38        1.0     0.230897      0.350866      0.885573     Biso  1.000000 H
   H39        1.0     0.730897      0.149134      0.614427     Biso  1.000000 H
   H40        1.0     0.230897      0.649134      0.114427     Biso  1.000000 H
   H41        1.0     0.269103      0.385573      0.149134     Biso  1.000000 H
   H42        1.0     0.769103      0.885573      0.649134     Biso  1.000000 H
   H43        1.0     0.269103      0.614427      0.850866     Biso  1.000000 H
   H44        1.0     0.769103      0.114427      0.350866     Biso  1.000000 H
   H45        1.0     0.269103      0.850866      0.614427     Biso  1.000000 H
   H46        1.0     0.769103      0.350866      0.114427     Biso  1.000000 H
   H47        1.0     0.269103      0.149134      0.385573     Biso  1.000000 H
   H48        1.0     0.769103      0.649134      0.885573     Biso  1.000000 H
   H49        1.0     0.356759      0.118959      0.568604     Biso  1.000000 H
   H50        1.0     0.856759      0.618959      0.068604     Biso  1.000000 H
   H51        1.0     0.356759      0.881040      0.431396     Biso  1.000000 H
   H52        1.0     0.856759      0.381040      0.931396     Biso  1.000000 H
   H53        1.0     0.356759      0.568604      0.118959     Biso  1.000000 H
   H54        1.0     0.856759      0.068604      0.618959     Biso  1.000000 H
   H55        1.0     0.356759      0.431396      0.881040     Biso  1.000000 H
   H56        1.0     0.856759      0.931396      0.381040     Biso  1.000000 H
   H57        1.0     0.643241      0.118959      0.431396     Biso  1.000000 H
   H58        1.0     0.143241      0.618959      0.931396     Biso  1.000000 H
   H59        1.0     0.643241      0.881040      0.568604     Biso  1.000000 H
   H60        1.0     0.143241      0.381040      0.068604     Biso  1.000000 H
   H61        1.0     0.643241      0.568604      0.881040     Biso  1.000000 H
   H62        1.0     0.143241      0.068604      0.381040     Biso  1.000000 H
   H63        1.0     0.643241      0.431396      0.118959     Biso  1.000000 H
   H64        1.0     0.143241      0.931396      0.618959     Biso  1.000000 H
   H65        1.0     0.118959      0.356759      0.568604     Biso  1.000000 H
   H66        1.0     0.618959      0.856759      0.068604     Biso  1.000000 H
   H67        1.0     0.118959      0.643241      0.431396     Biso  1.000000 H
   H68        1.0     0.618959      0.143241      0.931396     Biso  1.000000 H
   H69        1.0     0.118959      0.568604      0.356759     Biso  1.000000 H
   H70        1.0     0.618959      0.068604      0.856759     Biso  1.000000 H
   H71        1.0     0.118959      0.431396      0.643241     Biso  1.000000 H
   H72        1.0     0.618959      0.931396      0.143241     Biso  1.000000 H
   H73        1.0     0.881040      0.356759      0.431396     Biso  1.000000 H
   H74        1.0     0.381040      0.856759      0.931396     Biso  1.000000 H
   H75        1.0     0.881040      0.643241      0.568604     Biso  1.000000 H
   H76        1.0     0.381040      0.143241      0.068604     Biso  1.000000 H
   H77        1.0     0.881040      0.568604      0.643241     Biso  1.000000 H
   H78        1.0     0.381040      0.068604      0.143241     Biso  1.000000 H
   H79        1.0     0.881040      0.431396      0.356759     Biso  1.000000 H
   H80        1.0     0.381040      0.931396      0.856759     Biso  1.000000 H
   H81        1.0     0.568604      0.356759      0.118959     Biso  1.000000 H
   H82        1.0     0.068604      0.856759      0.618959     Biso  1.000000 H
   H83        1.0     0.568604      0.643241      0.881040     Biso  1.000000 H
   H84        1.0     0.068604      0.143241      0.381040     Biso  1.000000 H
   H85        1.0     0.568604      0.118959      0.356759     Biso  1.000000 H
   H86        1.0     0.068604      0.618959      0.856759     Biso  1.000000 H
   H87        1.0     0.568604      0.881040      0.643241     Biso  1.000000 H
   H88        1.0     0.068604      0.381040      0.143241     Biso  1.000000 H
   H89        1.0     0.431396      0.356759      0.881040     Biso  1.000000 H
   H90        1.0     0.931396      0.856759      0.381040     Biso  1.000000 H
   H91        1.0     0.431396      0.643241      0.118959     Biso  1.000000 H
   H92        1.0     0.931396      0.143241      0.618959     Biso  1.000000 H
   H93        1.0     0.431396      0.118959      0.643241     Biso  1.000000 H
   H94        1.0     0.931396      0.618959      0.143241     Biso  1.000000 H
   H95        1.0     0.431396      0.881040      0.356759     Biso  1.000000 H
   H96        1.0     0.931396      0.381040      0.856759     Biso  1.000000 H
   H97        1.0     0.451123      0.078292      0.548877     Biso  1.000000 H
   H98        1.0     0.951123      0.578292      0.048877     Biso  1.000000 H
   H99        1.0     0.451123      0.921708      0.451123     Biso  1.000000 H
   H100       1.0     0.951123      0.421708      0.951123     Biso  1.000000 H
   H101       1.0     0.451123      0.548877      0.078292     Biso  1.000000 H
   H102       1.0     0.951123      0.048877      0.578292     Biso  1.000000 H
   H103       1.0     0.451123      0.451123      0.921708     Biso  1.000000 H
   H104       1.0     0.951123      0.951123      0.421708     Biso  1.000000 H
   H105       1.0     0.548877      0.078292      0.451123     Biso  1.000000 H
   H106       1.0     0.048877      0.578292      0.951123     Biso  1.000000 H
   H107       1.0     0.548877      0.921708      0.548877     Biso  1.000000 H
   H108       1.0     0.048877      0.421708      0.048877     Biso  1.000000 H
   H109       1.0     0.548877      0.548877      0.921708     Biso  1.000000 H
   H110       1.0     0.048877      0.048877      0.421708     Biso  1.000000 H
   H111       1.0     0.548877      0.451123      0.078292     Biso  1.000000 H
   H112       1.0     0.048877      0.951123      0.578292     Biso  1.000000 H
   H113       1.0     0.078292      0.451123      0.548877     Biso  1.000000 H
   H114       1.0     0.578292      0.951123      0.048877     Biso  1.000000 H
   H115       1.0     0.078292      0.548877      0.451123     Biso  1.000000 H
   H116       1.0     0.578292      0.048877      0.951123     Biso  1.000000 H
   H117       1.0     0.921708      0.451123      0.451123     Biso  1.000000 H
   H118       1.0     0.421708      0.951123      0.951123     Biso  1.000000 H
   H119       1.0     0.921708      0.548877      0.548877     Biso  1.000000 H
   H120       1.0     0.421708      0.048877      0.048877     Biso  1.000000 H
   N1         1.0     0.410327      0.965757      0.682730     Biso  1.000000 N
   N2         1.0     0.910327      0.465758      0.182730     Biso  1.000000 N
   N3         1.0     0.410327      0.034242      0.317270     Biso  1.000000 N
   N4         1.0     0.910327      0.534242      0.817270     Biso  1.000000 N
   N5         1.0     0.410327      0.682730      0.965757     Biso  1.000000 N
   N6         1.0     0.910327      0.182730      0.465758     Biso  1.000000 N
   N7         1.0     0.410327      0.317270      0.034242     Biso  1.000000 N
   N8         1.0     0.910327      0.817270      0.534242     Biso  1.000000 N
   N9         1.0     0.589673      0.965757      0.317270     Biso  1.000000 N
   N10        1.0     0.089673      0.465758      0.817270     Biso  1.000000 N
   N11        1.0     0.589673      0.034242      0.682730     Biso  1.000000 N
   N12        1.0     0.089673      0.534242      0.182730     Biso  1.000000 N
   N13        1.0     0.589673      0.682730      0.034242     Biso  1.000000 N
   N14        1.0     0.089673      0.182730      0.534242     Biso  1.000000 N
   N15        1.0     0.589673      0.317270      0.965757     Biso  1.000000 N
   N16        1.0     0.089673      0.817270      0.465758     Biso  1.000000 N
   N17        1.0     0.965757      0.410327      0.682730     Biso  1.000000 N
   N18        1.0     0.465758      0.910327      0.182730     Biso  1.000000 N
   N19        1.0     0.965757      0.589673      0.317270     Biso  1.000000 N
   N20        1.0     0.465758      0.089673      0.817270     Biso  1.000000 N
   N21        1.0     0.965757      0.682730      0.410327     Biso  1.000000 N
   N22        1.0     0.465758      0.182730      0.910327     Biso  1.000000 N
   N23        1.0     0.965757      0.317270      0.589673     Biso  1.000000 N
   N24        1.0     0.465758      0.817270      0.089673     Biso  1.000000 N
   N25        1.0     0.034242      0.410327      0.317270     Biso  1.000000 N
   N26        1.0     0.534242      0.910327      0.817270     Biso  1.000000 N
   N27        1.0     0.034242      0.589673      0.682730     Biso  1.000000 N
   N28        1.0     0.534242      0.089673      0.182730     Biso  1.000000 N
   N29        1.0     0.034242      0.682730      0.589673     Biso  1.000000 N
   N30        1.0     0.534242      0.182730      0.089673     Biso  1.000000 N
   N31        1.0     0.034242      0.317270      0.410327     Biso  1.000000 N
   N32        1.0     0.534242      0.817270      0.910327     Biso  1.000000 N
   N33        1.0     0.682730      0.410327      0.965757     Biso  1.000000 N
   N34        1.0     0.182730      0.910327      0.465758     Biso  1.000000 N
   N35        1.0     0.682730      0.589673      0.034242     Biso  1.000000 N
   N36        1.0     0.182730      0.089673      0.534242     Biso  1.000000 N
   N37        1.0     0.682730      0.965757      0.410327     Biso  1.000000 N
   N38        1.0     0.182730      0.465758      0.910327     Biso  1.000000 N
   N39        1.0     0.682730      0.034242      0.589673     Biso  1.000000 N
   N40        1.0     0.182730      0.534242      0.089673     Biso  1.000000 N
   N41        1.0     0.317270      0.410327      0.034242     Biso  1.000000 N
   N42        1.0     0.817270      0.910327      0.534242     Biso  1.000000 N
   N43        1.0     0.317270      0.589673      0.965757     Biso  1.000000 N
   N44        1.0     0.817270      0.089673      0.465758     Biso  1.000000 N
   N45        1.0     0.317270      0.965757      0.589673     Biso  1.000000 N
   N46        1.0     0.817270      0.465758      0.089673     Biso  1.000000 N
   N47        1.0     0.317270      0.034242      0.410327     Biso  1.000000 N
   N48        1.0     0.817270      0.534242      0.910327     Biso  1.000000 N
