#======================================================================

# CRYSTAL DATA

#----------------------------------------------------------------------

data_VESTA_phase_1


_pd_phase_name                         '¦'
_cell_length_a                         17.14313
_cell_length_b                         17.16192
_cell_length_c                         17.05161
_cell_angle_alpha                      89.98522
_cell_angle_beta                       89.98723
_cell_angle_gamma                      89.98302
_symmetry_space_group_name_H-M         'P 1'
_symmetry_Int_Tables_number            1

loop_
_symmetry_equiv_pos_as_xyz
   'x, y, z'

loop_
   _atom_site_label
   _atom_site_occupancy
   _atom_site_fract_x
   _atom_site_fract_y
   _atom_site_fract_z
   _atom_site_adp_type
   _atom_site_B_iso_or_equiv
   _atom_site_type_symbol
   C1         1.0     0.878723      0.509844      0.129596     Biso  1.000000 C
   C2         1.0     0.371917      0.009490      0.622119     Biso  1.000000 C
   C3         1.0     0.876927      0.488349      0.877701     Biso  1.000000 C
   C4         1.0     0.371745      0.990047      0.371447     Biso  1.000000 C
   C5         1.0     0.873732      0.125163      0.507156     Biso  1.000000 C
   C6         1.0     0.378436      0.622569      0.010076     Biso  1.000000 C
   C7         1.0     0.872208      0.876982      0.489833     Biso  1.000000 C
   C8         1.0     0.377546      0.374081      0.988683     Biso  1.000000 C
   C9         1.0     0.126872      0.509431      0.879092     Biso  1.000000 C
   C10        1.0     0.622154      0.008611      0.370544     Biso  1.000000 C
   C11        1.0     0.125815      0.491241      0.128415     Biso  1.000000 C
   C12        1.0     0.625294      0.990756      0.620971     Biso  1.000000 C
   C13        1.0     0.121377      0.126615      0.491024     Biso  1.000000 C
   C14        1.0     0.626440      0.621488      0.989239     Biso  1.000000 C
   C15        1.0     0.123809      0.875229      0.511898     Biso  1.000000 C
   C16        1.0     0.625946      0.372833      0.011541     Biso  1.000000 C
   C17        1.0     0.509483      0.872763      0.121464     Biso  1.000000 C
   C18        1.0     0.008532      0.375699      0.628548     Biso  1.000000 C
   C19        1.0     0.510117      0.121165      0.870027     Biso  1.000000 C
   C20        1.0     0.009523      0.628161      0.379191     Biso  1.000000 C
   C21        1.0     0.491831      0.874647      0.872217     Biso  1.000000 C
   C22        1.0     0.990515      0.375235      0.378053     Biso  1.000000 C
   C23        1.0     0.488247      0.122929      0.122110     Biso  1.000000 C
   C24        1.0     0.990222      0.626153      0.629444     Biso  1.000000 C
   C25        1.0     0.868606      0.404657      0.199426     Biso  1.000000 C
   C26        1.0     0.363026      0.902144      0.688647     Biso  1.000000 C
   C27        1.0     0.866950      0.595606      0.811150     Biso  1.000000 C
   C28        1.0     0.361365      0.095816      0.302667     Biso  1.000000 C
   C29        1.0     0.863955      0.194816      0.401576     Biso  1.000000 C
   C30        1.0     0.365234      0.691379      0.904400     Biso  1.000000 C
   C31        1.0     0.860684      0.811338      0.597880     Biso  1.000000 C
   C32        1.0     0.366412      0.304233      0.093817     Biso  1.000000 C
   C33        1.0     0.136736      0.402867      0.811237     Biso  1.000000 C
   C34        1.0     0.632284      0.901816      0.303301     Biso  1.000000 C
   C35        1.0     0.137878      0.597434      0.196493     Biso  1.000000 C
   C36        1.0     0.633969      0.097483      0.688325     Biso  1.000000 C
   C37        1.0     0.134910      0.196148      0.596172     Biso  1.000000 C
   C38        1.0     0.637078      0.691255      0.094458     Biso  1.000000 C
   C39        1.0     0.132164      0.807852      0.404892     Biso  1.000000 C
   C40        1.0     0.638612      0.304974      0.905197     Biso  1.000000 C
   C41        1.0     0.401136      0.862849      0.186592     Biso  1.000000 C
   C42        1.0     0.902589      0.365840      0.697278     Biso  1.000000 C
   C43        1.0     0.403917      0.132454      0.801840     Biso  1.000000 C
   C44        1.0     0.902990      0.636637      0.311291     Biso  1.000000 C
   C45        1.0     0.405761      0.191234      0.858000     Biso  1.000000 C
   C46        1.0     0.902939      0.695054      0.367898     Biso  1.000000 C
   C47        1.0     0.404484      0.803472      0.131170     Biso  1.000000 C
   C48        1.0     0.902440      0.307921      0.640212     Biso  1.000000 C
   C49        1.0     0.597646      0.863990      0.803038     Biso  1.000000 C
   C50        1.0     0.098112      0.365606      0.311810     Biso  1.000000 C
   C51        1.0     0.594350      0.131916      0.190776     Biso  1.000000 C
   C52        1.0     0.097103      0.636093      0.696750     Biso  1.000000 C
   C53        1.0     0.594282      0.190225      0.133958     Biso  1.000000 C
   C54        1.0     0.096711      0.693463      0.639103     Biso  1.000000 C
   C55        1.0     0.596997      0.805796      0.859771     Biso  1.000000 C
   C56        1.0     0.097228      0.308196      0.369519     Biso  1.000000 C
   C57        1.0     0.189982      0.864795      0.404171     Biso  1.000000 C
   C58        1.0     0.696091      0.362166      0.906501     Biso  1.000000 C
   C59        1.0     0.191511      0.138023      0.596084     Biso  1.000000 C
   C60        1.0     0.694229      0.633698      0.095703     Biso  1.000000 C
   C61        1.0     0.195514      0.404229      0.867449     Biso  1.000000 C
   C62        1.0     0.689382      0.902047      0.361270     Biso  1.000000 C
   C63        1.0     0.196672      0.595003      0.140384     Biso  1.000000 C
   C64        1.0     0.692297      0.097245      0.631492     Biso  1.000000 C
   C65        1.0     0.803392      0.868731      0.596037     Biso  1.000000 C
   C66        1.0     0.309320      0.361861      0.094927     Biso  1.000000 C
   C67        1.0     0.806324      0.137829      0.400308     Biso  1.000000 C
   C68        1.0     0.307862      0.634053      0.905452     Biso  1.000000 C
   C69        1.0     0.810232      0.404665      0.142738     Biso  1.000000 C
   C70        1.0     0.305200      0.902775      0.631365     Biso  1.000000 C
   C71        1.0     0.807966      0.593437      0.867277     Biso  1.000000 C
   C72        1.0     0.303338      0.095692      0.359696     Biso  1.000000 C
   C73        1.0     0.908078      0.583675      0.100440     Biso  1.000000 C
   C74        1.0     0.400576      0.084494      0.595404     Biso  1.000000 C
   C75        1.0     0.907021      0.414190      0.905381     Biso  1.000000 C
   C76        1.0     0.398866      0.915495      0.400834     Biso  1.000000 C
   C77        1.0     0.899796      0.095874      0.582422     Biso  1.000000 C
   C78        1.0     0.408092      0.595769      0.084916     Biso  1.000000 C
   C79        1.0     0.901441      0.902197      0.414160     Biso  1.000000 C
   C80        1.0     0.404230      0.403328      0.913637     Biso  1.000000 C
   C81        1.0     0.097018      0.583786      0.906322     Biso  1.000000 C
   C82        1.0     0.593878      0.083757      0.397069     Biso  1.000000 C
   C83        1.0     0.095576      0.417144      0.101170     Biso  1.000000 C
   C84        1.0     0.598260      0.915971      0.592116     Biso  1.000000 C
   C85        1.0     0.091506      0.098463      0.416717     Biso  1.000000 C
   C86        1.0     0.600195      0.592399      0.913989     Biso  1.000000 C
   C87        1.0     0.097467      0.904132      0.587356     Biso  1.000000 C
   C88        1.0     0.596628      0.399141      0.086703     Biso  1.000000 C
   C89        1.0     0.584281      0.902688      0.095440     Biso  1.000000 C
   C90        1.0     0.083301      0.402419      0.599254     Biso  1.000000 C
   C91        1.0     0.584064      0.091169      0.898358     Biso  1.000000 C
   C92        1.0     0.084232      0.601144      0.408569     Biso  1.000000 C
   C93        1.0     0.417524      0.904159      0.899997     Biso  1.000000 C
   C94        1.0     0.915262      0.404100      0.404117     Biso  1.000000 C
   C95        1.0     0.414014      0.093665      0.093624     Biso  1.000000 C
   C96        1.0     0.915056      0.598011      0.602702     Biso  1.000000 C
   Zn1        1.0     0.004260      0.502619      0.256060     Biso  1.000000 Zn
   Zn2        1.0     0.500043      0.995822      0.744006     Biso  1.000000 Zn
   Zn3        1.0     0.003682      0.499614      0.752684     Biso  1.000000 Zn
   Zn4        1.0     0.496073      0.996017      0.247219     Biso  1.000000 Zn
   Zn5        1.0     0.995144      0.250824      0.504037     Biso  1.000000 Zn
   Zn6        1.0     0.503241      0.748240      0.995158     Biso  1.000000 Zn
   Zn7        1.0     0.996599      0.752312      0.506723     Biso  1.000000 Zn
   Zn8        1.0     0.500366      0.246843      0.994322     Biso  1.000000 Zn
   Zn9        1.0     0.246459      0.003831      0.496535     Biso  1.000000 Zn
   Zn10       1.0     0.752800      0.496407      0.005369     Biso  1.000000 Zn
   Zn11       1.0     0.252024      0.499665      0.005085     Biso  1.000000 Zn
   Zn12       1.0     0.748274      0.002591      0.492828     Biso  1.000000 Zn
   H1         1.0     0.882024      0.361697      0.244122     Biso  1.000000 H
   H2         1.0     0.377559      0.857855      0.731648     Biso  1.000000 H
   H3         1.0     0.880716      0.640100      0.768094     Biso  1.000000 H
   H4         1.0     0.374705      0.138899      0.258040     Biso  1.000000 H
   H5         1.0     0.876868      0.240426      0.359526     Biso  1.000000 H
   H6         1.0     0.376975      0.736385      0.861386     Biso  1.000000 H
   H7         1.0     0.873206      0.767787      0.642161     Biso  1.000000 H
   H8         1.0     0.378692      0.258435      0.135861     Biso  1.000000 H
   H9         1.0     0.123595      0.359724      0.766717     Biso  1.000000 H
   H10        1.0     0.618560      0.857932      0.259673     Biso  1.000000 H
   H11        1.0     0.125752      0.640603      0.241281     Biso  1.000000 H
   H12        1.0     0.619757      0.141101      0.732155     Biso  1.000000 H
   H13        1.0     0.122964      0.240844      0.639512     Biso  1.000000 H
   H14        1.0     0.624534      0.737060      0.136406     Biso  1.000000 H
   H15        1.0     0.117968      0.764149      0.361169     Biso  1.000000 H
   H16        1.0     0.626583      0.260440      0.861801     Biso  1.000000 H
   H17        1.0     0.356698      0.876140      0.229835     Biso  1.000000 H
   H18        1.0     0.859492      0.379373      0.741873     Biso  1.000000 H
   H19        1.0     0.359986      0.119373      0.757974     Biso  1.000000 H
   H20        1.0     0.859496      0.622265      0.267352     Biso  1.000000 H
   H21        1.0     0.363934      0.236967      0.870433     Biso  1.000000 H
   H22        1.0     0.858850      0.738465      0.381121     Biso  1.000000 H
   H23        1.0     0.362048      0.758690      0.117258     Biso  1.000000 H
   H24        1.0     0.859430      0.263380      0.627669     Biso  1.000000 H
   H25        1.0     0.640180      0.876542      0.757702     Biso  1.000000 H
   H26        1.0     0.142548      0.379648      0.268762     Biso  1.000000 H
   H27        1.0     0.637745      0.117976      0.234917     Biso  1.000000 H
   H28        1.0     0.141046      0.622233      0.740341     Biso  1.000000 H
   H29        1.0     0.638091      0.233891      0.120720     Biso  1.000000 H
   H30        1.0     0.139464      0.738153      0.626035     Biso  1.000000 H
   H31        1.0     0.639381      0.760579      0.872192     Biso  1.000000 H
   H32        1.0     0.140663      0.264414      0.383765     Biso  1.000000 H
   H33        1.0     0.232947      0.878302      0.359475     Biso  1.000000 H
   H34        1.0     0.741974      0.374680      0.864570     Biso  1.000000 H
   H35        1.0     0.237194      0.125707      0.638264     Biso  1.000000 H
   H36        1.0     0.738759      0.621449      0.139110     Biso  1.000000 H
   H37        1.0     0.240004      0.361214      0.880688     Biso  1.000000 H
   H38        1.0     0.733930      0.859233      0.374708     Biso  1.000000 H
   H39        1.0     0.242850      0.636311      0.127899     Biso  1.000000 H
   H40        1.0     0.735716      0.141159      0.617800     Biso  1.000000 H
   H41        1.0     0.758871      0.882865      0.638986     Biso  1.000000 H
   H42        1.0     0.264657      0.374192      0.138176     Biso  1.000000 H
   H43        1.0     0.761822      0.125966      0.356792     Biso  1.000000 H
   H44        1.0     0.261783      0.621892      0.863657     Biso  1.000000 H
   H45        1.0     0.765114      0.362096      0.130733     Biso  1.000000 H
   H46        1.0     0.261474      0.859163      0.617592     Biso  1.000000 H
   H47        1.0     0.763512      0.636301      0.881037     Biso  1.000000 H
   H48        1.0     0.258458      0.138405      0.372149     Biso  1.000000 H
   H49        1.0     0.961428      0.605194      0.131063     Biso  1.000000 H
   H50        1.0     0.453451      0.105795      0.626928     Biso  1.000000 H
   H51        1.0     0.960977      0.394036      0.874865     Biso  1.000000 H
   H52        1.0     0.461689      0.626541      0.105295     Biso  1.000000 H
   H53        1.0     0.954803      0.870833      0.393912     Biso  1.000000 H
   H54        1.0     0.043125      0.603710      0.875440     Biso  1.000000 H
   H55        1.0     0.541655      0.105725      0.364888     Biso  1.000000 H
   H56        1.0     0.041504      0.397418      0.131798     Biso  1.000000 H
   H57        1.0     0.542623      0.368828      0.106780     Biso  1.000000 H
   H58        1.0     0.603398      0.956924      0.126061     Biso  1.000000 H
   H59        1.0     0.604614      0.037323      0.868053     Biso  1.000000 H
   H60        1.0     0.106257      0.633419      0.460813     Biso  1.000000 H
   H61        1.0     0.104806      0.370651      0.546428     Biso  1.000000 H
   H62        1.0     0.396755      0.957490      0.868798     Biso  1.000000 H
   H63        1.0     0.894046      0.456534      0.371813     Biso  1.000000 H
   H64        1.0     0.392698      0.040427      0.124562     Biso  1.000000 H
   H65        1.0     0.893263      0.545313      0.634125     Biso  1.000000 H
   H66        1.0     0.129343      0.956600      0.608851     Biso  1.000000 H
   H67        1.0     0.038855      0.129790      0.394819     Biso  1.000000 H
   H68        1.0     0.630895      0.538707      0.893726     Biso  1.000000 H
   H69        1.0     0.630609      0.893463      0.540111     Biso  1.000000 H
   H70        1.0     0.373728      0.457073      0.893234     Biso  1.000000 H
   H71        1.0     0.868098      0.043063      0.603364     Biso  1.000000 H
   H72        1.0     0.367335      0.894124      0.453891     Biso  1.000000 H
   O1         1.0     0.877901      0.620757      0.046500     Biso  1.000000 O
   O2         1.0     0.370055      0.122685      0.542419     Biso  1.000000 O
   O3         1.0     0.876813      0.375586      0.958200     Biso  1.000000 O
   O4         1.0     0.377505      0.543763      0.124361     Biso  1.000000 O
   O5         1.0     0.870799      0.953654      0.374171     Biso  1.000000 O
   O6         1.0     0.127146      0.623026      0.958659     Biso  1.000000 O
   O7         1.0     0.624125      0.121603      0.450472     Biso  1.000000 O
   O8         1.0     0.125855      0.377756      0.048937     Biso  1.000000 O
   O9         1.0     0.121114      0.044365      0.379480     Biso  1.000000 O
   O10        1.0     0.627909      0.450279      0.126671     Biso  1.000000 O
   O11        1.0     0.624671      0.872145      0.044167     Biso  1.000000 O
   O12        1.0     0.622222      0.121472      0.951475     Biso  1.000000 O
   O13        1.0     0.121412      0.547035      0.379184     Biso  1.000000 O
   O14        1.0     0.121303      0.455589      0.629314     Biso  1.000000 O
   O15        1.0     0.379072      0.874240      0.953140     Biso  1.000000 O
   O16        1.0     0.876714      0.374206      0.457194     Biso  1.000000 O
   O17        1.0     0.376502      0.123698      0.039935     Biso  1.000000 O
   O18        1.0     0.877075      0.628914      0.549723     Biso  1.000000 O
   O19        1.0     0.044410      0.874146      0.625713     Biso  1.000000 O
   O20        1.0     0.548769      0.623467      0.874146     Biso  1.000000 O
   O21        1.0     0.544009      0.879135      0.621770     Biso  1.000000 O
   O22        1.0     0.455930      0.372278      0.874077     Biso  1.000000 O
   O23        1.0     0.952269      0.125976      0.621572     Biso  1.000000 O
   O24        1.0     0.452124      0.877602      0.370726     Biso  1.000000 O
   N1         1.0     0.911466      0.470899      0.190959     Biso  1.000000 N
   N2         1.0     0.404477      0.969250      0.682446     Biso  1.000000 N
   N3         1.0     0.910240      0.529474      0.818093     Biso  1.000000 N
   N4         1.0     0.403941      0.029322      0.310254     Biso  1.000000 N
   N5         1.0     0.905875      0.186543      0.468647     Biso  1.000000 N
   N6         1.0     0.409204      0.683745      0.970025     Biso  1.000000 N
   N7         1.0     0.903571      0.817056      0.531286     Biso  1.000000 N
   N8         1.0     0.408922      0.312109      0.027067     Biso  1.000000 N
   N9         1.0     0.093661      0.468880      0.819093     Biso  1.000000 N
   N10        1.0     0.590618      0.968845      0.309432     Biso  1.000000 N
   N11        1.0     0.093504      0.532290      0.188587     Biso  1.000000 N
   N12        1.0     0.592170      0.030504      0.681330     Biso  1.000000 N
   N13        1.0     0.091338      0.188710      0.530116     Biso  1.000000 N
   N14        1.0     0.594848      0.683352      0.027569     Biso  1.000000 N
   N15        1.0     0.090844      0.814651      0.472656     Biso  1.000000 N
   N16        1.0     0.594872      0.312017      0.971095     Biso  1.000000 N
   N17        1.0     0.467031      0.906337      0.179946     Biso  1.000000 N
   N18        1.0     0.969353      0.408010      0.689734     Biso  1.000000 N
   N19        1.0     0.469615      0.088557      0.809626     Biso  1.000000 N
   N20        1.0     0.970028      0.594897      0.318730     Biso  1.000000 N
   N21        1.0     0.472358      0.183793      0.900155     Biso  1.000000 N
   N22        1.0     0.969901      0.689427      0.410099     Biso  1.000000 N
   N23        1.0     0.472599      0.809797      0.091102     Biso  1.000000 N
   N24        1.0     0.968838      0.314643      0.597514     Biso  1.000000 N
   N25        1.0     0.531606      0.907075      0.811235     Biso  1.000000 N
   N26        1.0     0.031014      0.407260      0.317622     Biso  1.000000 N
   N27        1.0     0.527617      0.089678      0.182941     Biso  1.000000 N
   N28        1.0     0.030113      0.594357      0.690400     Biso  1.000000 N
   N29        1.0     0.527587      0.184376      0.091494     Biso  1.000000 N
   N30        1.0     0.029689      0.686828      0.597149     Biso  1.000000 N
   N31        1.0     0.530628      0.812741      0.902410     Biso  1.000000 N
   N32        1.0     0.029612      0.314564      0.410791     Biso  1.000000 N
   N33        1.0     0.184397      0.906770      0.471436     Biso  1.000000 N
   N34        1.0     0.687973      0.404439      0.973336     Biso  1.000000 N
   N35        1.0     0.182585      0.094619      0.530123     Biso  1.000000 N
   N36        1.0     0.687195      0.590216      0.029698     Biso  1.000000 N
   N37        1.0     0.189216      0.471222      0.909261     Biso  1.000000 N
   N38        1.0     0.682577      0.969008      0.403139     Biso  1.000000 N
   N39        1.0     0.188839      0.528400      0.098437     Biso  1.000000 N
   N40        1.0     0.686485      0.030177      0.589682     Biso  1.000000 N
   N41        1.0     0.810769      0.909556      0.528047     Biso  1.000000 N
   N42        1.0     0.316702      0.405356      0.028967     Biso  1.000000 N
   N43        1.0     0.812902      0.094580      0.466534     Biso  1.000000 N
   N44        1.0     0.316416      0.591181      0.971841     Biso  1.000000 N
   N45        1.0     0.816943      0.470617      0.099523     Biso  1.000000 N
   N46        1.0     0.311022      0.970246      0.589867     Biso  1.000000 N
   N47        1.0     0.814416      0.526014      0.908368     Biso  1.000000 N
   N48        1.0     0.310364      0.029416      0.402483     Biso  1.000000 N
